8qw7_X53.pdb
  PyMOL3.0          3D                             0

 38 41  0  0  1  0  0  0  0  0999 V2000
   28.2849   42.6732   34.3473 H   0  0  0  0  0  0  0  0  0  0  0  0
   31.6020   43.1020   34.0470 C   0  0  0  0  0  0  0  0  0  0  0  0
   31.9680   41.7940   33.8130 C   0  0  0  0  0  0  0  0  0  0  0  0
   30.9810   40.8250   33.7820 C   0  0  0  0  0  0  0  0  0  0  0  0
   29.7010   41.1600   33.9680 N   0  0  0  0  0  0  0  0  0  0  0  0
   29.3360   42.4280   34.1950 C   0  0  0  0  0  0  0  0  0  0  0  0
   30.2590   43.3930   34.2350 N   0  0  0  0  0  0  0  0  0  0  0  0
   31.3120   39.5670   33.5460 C   0  0  0  0  0  0  0  0  0  0  0  0
   32.5220   39.0680   33.7130 N   0  0  0  0  0  0  0  0  0  0  0  0
   32.4190   37.8070   33.3460 C   0  0  0  0  0  0  0  0  0  0  0  0
   31.1840   37.5350   32.9680 O   0  0  0  0  0  0  0  0  0  0  0  0
   30.4820   38.6460   33.0850 N   0  0  0  0  0  0  0  0  0  0  0  0
   33.5630   36.2080   32.1580 C   0  0  0  0  0  0  0  0  0  0  0  0
   33.5140   34.8680   32.0870 C   0  0  0  0  0  0  0  0  0  0  0  0
   33.7470   36.7240   30.9350 C   0  0  0  0  0  0  0  0  0  0  0  0
   33.8290   35.8390   29.9530 C   0  0  0  0  0  0  0  0  0  0  0  0
   33.6870   34.4400   30.5680 S   0  0  0  0  0  0  0  0  0  0  0  0
   33.8440   38.0900   30.6890 C   0  0  0  0  0  0  0  0  0  0  0  0
   34.0030   36.0400   28.6610 N   0  0  0  0  0  0  0  0  0  0  0  0
   33.9190   39.1470   30.5050 N   0  0  0  0  0  0  0  0  0  0  0  0
   33.3370   34.0730   33.1960 C   0  0  0  0  0  0  0  0  0  0  0  0
   33.9400   34.7370   34.3630 C   0  0  0  0  0  0  0  0  0  0  0  0
   33.1930   35.9910   34.5450 C   0  0  0  0  0  0  0  0  0  0  0  0
   33.4500   36.8940   33.3760 C   0  0  2  0  0  0  0  0  0  0  0  0
   34.7700   37.6110   33.6270 C   0  0  0  0  0  0  0  0  0  0  0  0
   32.3530   43.8900   34.0840 H   0  0  0  0  0  0  0  0  0  0  0  0
   33.0140   41.5350   33.6620 H   0  0  0  0  0  0  0  0  0  0  0  0
   34.1020   36.9660   28.2990 H   0  0  0  0  0  0  0  0  0  0  0  0
   33.8180   33.1120   33.0360 H   0  0  0  0  0  0  0  0  0  0  0  0
   34.9900   34.9420   34.1760 H   0  0  0  0  0  0  0  0  0  0  0  0
   33.5070   36.4720   35.4660 H   0  0  0  0  0  0  0  0  0  0  0  0
   34.8360   38.5180   33.0350 H   0  0  0  0  0  0  0  0  0  0  0  0
   32.2730   33.9310   33.3720 H   0  0  0  0  0  0  0  0  0  0  0  0
   33.8290   34.1100   35.2430 H   0  0  0  0  0  0  0  0  0  0  0  0
   32.1310   35.7680   34.5970 H   0  0  0  0  0  0  0  0  0  0  0  0
   35.5810   36.9420   33.3470 H   0  0  0  0  0  0  0  0  0  0  0  0
   34.8560   37.8650   34.6800 H   0  0  0  0  0  0  0  0  0  0  0  0
   34.0370   35.2570   28.0400 H   0  0  0  0  0  0  0  0  0  0  0  0
  2  3  1  0  0  0  0
  2  7  2  0  0  0  0
  2 26  1  0  0  0  0
  3  4  2  0  0  0  0
  3 27  1  0  0  0  0
  4  5  1  0  0  0  0
  4  8  1  0  0  0  0
  5  6  2  0  0  0  0
  1  6  1  0  0  0  0
  6  7  1  0  0  0  0
  8  9  1  0  0  0  0
  8 12  2  0  0  0  0
  9 10  2  0  0  0  0
 10 11  1  0  0  0  0
 10 24  1  0  0  0  0
 11 12  1  0  0  0  0
 13 14  2  0  0  0  0
 13 15  1  0  0  0  0
 13 24  1  0  0  0  0
 14 17  1  0  0  0  0
 14 21  1  0  0  0  0
 15 16  2  0  0  0  0
 15 18  1  0  0  0  0
 16 17  1  0  0  0  0
 16 19  1  0  0  0  0
 18 20  3  0  0  0  0
 19 28  1  0  0  0  0
 19 38  1  0  0  0  0
 21 22  1  0  0  0  0
 21 29  1  0  0  0  0
 21 33  1  0  0  0  0
 22 23  1  0  0  0  0
 22 30  1  0  0  0  0
 22 34  1  0  0  0  0
 23 24  1  0  0  0  0
 23 31  1  0  0  0  0
 23 35  1  0  0  0  0
 24 25  1  0  0  0  0
 25 32  1  0  0  0  0
 25 36  1  0  0  0  0
 25 37  1  0  0  0  0
M  END
$$$$
